Circuit: *LTSpiceTransmissionLines\LTSpice\sim\main\tranmission_line_10_dropoffs.asc

lossytl: using linear interpolation because trytocompact option specified
.OP point found by inspection.

Date: Thu Jul 28 13:24:20 2016
Total elapsed time: 15.600 seconds.

tnom = 27
temp = 27
method = modified trap
totiter = 96002
traniter = 96002
tranpoints = 48002
accept = 47997
rejected = 5
matrix size = 47
fillins = 20
solver = Normal
Matrix Compiler1: 5.40 KB object code size  1.8/1.3/[0.7]
Matrix Compiler2: 4.80 KB object code size  1.2/0.9/[0.4]


