Circuit: *5.0pLTSpiceTransmissionLines\LTSpice\sim\main\tranmission_line_10_dropoffs.asc

lossytl: using linear interpolation because trytocompact option specified
.OP point found by inspection.

Date: Thu Jul 28 10:44:41 2016
Total elapsed time: 2.334 seconds.

tnom = 27
temp = 27
method = modified trap
totiter = 19286
traniter = 19286
tranpoints = 9644
accept = 9635
rejected = 9
matrix size = 47
fillins = 20
solver = Normal
Matrix Compiler1: 5.40 KB object code size  1.8/1.4/[0.7]
Matrix Compiler2: 4.80 KB object code size  1.2/0.8/[0.4]


