Circuit: *5.0pLTSpiceTransmissionLines\LTSpice\sim\main\tranmission_line_10_dropoffs.asc

lossytl: using linear interpolation because trytocompact option specified
.OP point found by inspection.

Date: Tue Jul 26 14:50:07 2016
Total elapsed time: 0.077 seconds.

tnom = 27
temp = 27
method = modified trap
totiter = 2108
traniter = 2108
tranpoints = 1055
accept = 1052
rejected = 3
matrix size = 47
fillins = 20
solver = Normal
Matrix Compiler1: 5.40 KB object code size  3.0/2.2/[1.3]
Matrix Compiler2: 4.80 KB object code size  1.3/1.0/[0.7]


