Circuit: *5.0pLTSpiceTransmissionLines\LTSpice\sim\main\tranmission_line_10_dropoffs.asc

lossytl: using linear interpolation because trytocompact option specified
.OP point found by inspection.

<<<<<<< HEAD
Date: Wed Jul 27 12:52:40 2016
Total elapsed time: 0.187 seconds.
=======
Date: Thu Jul 28 10:44:41 2016
Total elapsed time: 2.334 seconds.
>>>>>>> 8e33a26b365e3fbe1c5c49efbb78a4e4e079ce72

tnom = 27
temp = 27
method = modified trap
totiter = 19286
traniter = 19286
tranpoints = 9644
accept = 9635
rejected = 9
matrix size = 47
fillins = 20
solver = Normal
<<<<<<< HEAD
Matrix Compiler1: 5.40 KB object code size  2.7/2.2/[1.3]
Matrix Compiler2: 4.80 KB object code size  1.5/1.0/[0.7]
=======
Matrix Compiler1: 5.40 KB object code size  1.8/1.4/[0.7]
Matrix Compiler2: 4.80 KB object code size  1.2/0.8/[0.4]
>>>>>>> 8e33a26b365e3fbe1c5c49efbb78a4e4e079ce72


