Circuit: *LTSpiceTransmissionLines\LTSpice\sim\main\tranmission_line_10_dropoffs.asc

lossytl: using linear interpolation because trytocompact option specified
.OP point found by inspection.

Date: Mon Aug 01 14:30:43 2016
Total elapsed time: 1658.708 seconds.

tnom = 27
temp = 27
method = modified trap
totiter = 341198
traniter = 341198
tranpoints = 170600
accept = 170595
rejected = 5
matrix size = 47
fillins = 20
solver = Normal
Matrix Compiler1: 5.40 KB object code size  1.8/1.4/[0.7]
Matrix Compiler2: 4.80 KB object code size  3.7/0.8/[0.4]


