Circuit: *LTSpiceTransmissionLines\LTSpice\sim\main\tranmission_line_10_dropoffs.asc

lossytl: using linear interpolation because trytocompact option specified
.OP point found by inspection.

Date: Thu Jul 28 13:48:11 2016
Total elapsed time: 1.165 seconds.

tnom = 27
temp = 27
method = modified trap
totiter = 10720
traniter = 10720
tranpoints = 5361
accept = 5358
rejected = 3
matrix size = 47
fillins = 20
solver = Normal
Matrix Compiler1: 5.40 KB object code size  1.8/1.3/[0.7]
Matrix Compiler2: 4.80 KB object code size  1.2/0.9/[0.3]


