Circuit: * C:\LTSpiceTransmissionLines\LTSpice\sim\main\tranmission_line_10_dropoffs.asc

Limiting fall time of source i7 to 1.3e-010
Limiting rise time of source i1 to 4.3e-010
lossytl: using linear interpolation because trytocompact option specified
.OP point found by inspection.

Date: Thu Aug 04 17:42:53 2016
Total elapsed time: 78.523 seconds.

tnom = 27
temp = 27
method = modified trap
totiter = 45770
traniter = 45770
tranpoints = 22886
accept = 22867
rejected = 19
matrix size = 46
fillins = 0
solver = Normal
Matrix Compiler1: 5.36 KB object code size  2.6/2.1/[1.3]
Matrix Compiler2: 4.71 KB object code size  1.7/1.2/[0.7]


