Circuit: * C:\LTSpiceTransmissionLines\LTSpice\sim\main\tranmission_line.asc

lossytl: using linear interpolation because trytocompact option specified
.OP point found by inspection.

Date: Wed Aug 03 17:07:31 2016
Total elapsed time: 344.465 seconds.

tnom = 27
temp = 27
method = modified trap
totiter = 136648
traniter = 136648
tranpoints = 68325
accept = 68307
rejected = 18
matrix size = 46
fillins = 20
solver = Normal
Matrix Compiler1: 5.36 KB object code size  2.7/2.0/[1.3]
Matrix Compiler2: 4.71 KB object code size  1.4/1.1/[0.6]


