Circuit: * C:\LTSpiceTransmissionLines\LTSpice\sim\main\tranmission_line.asc

lossytl: using linear interpolation because trytocompact option specified

Date: Thu Aug 04 09:31:12 2016
Date: Thu Aug 04 09:31:26 2016
Total elapsed time: 15.706 seconds.

tnom = 27
temp = 27
method = modified trap
totiter = 96132
traniter = 96132
tranpoints = 48067
accept = 48047
rejected = 20
matrix size = 46
fillins = 20
solver = Normal
Matrix Compiler1: 5.36 KB object code size  1.7/1.3/[0.7]
Matrix Compiler2: 4.71 KB object code size  1.2/0.9/[0.4]


