Circuit: * C:\LTSpiceTransmissionLines\LTSpice\sim\main\tranmission_line_10_dropoffs.asc

lossytl: using linear interpolation because trytocompact option specified
.OP point found by inspection.

Date: Thu Aug 04 15:55:24 2016
Total elapsed time: 2.908 seconds.

tnom = 27
temp = 27
method = modified trap
totiter = 8178
traniter = 8178
tranpoints = 4090
accept = 4071
rejected = 19
matrix size = 46
fillins = 0
solver = Normal
Matrix Compiler1: 5.36 KB object code size  1.6/1.4/[0.6]
Matrix Compiler2: 4.71 KB object code size  1.1/0.9/[0.4]


