Circuit: * C:\LTSpiceTransmissionLines\LTSpice\sim\main\tranmission_line_10_dropoffs.asc

lossytl: using linear interpolation because trytocompact option specified
.OP point found by inspection.

Date: Thu Aug 04 14:28:20 2016
Total elapsed time: 4.694 seconds.

tnom = 27
temp = 27
method = modified trap
totiter = 8252
traniter = 8252
tranpoints = 4127
accept = 4098
rejected = 29
matrix size = 46
fillins = 0
solver = Normal
Matrix Compiler1: 5.36 KB object code size  2.6/2.2/[1.3]
Matrix Compiler2: 4.71 KB object code size  1.6/1.3/[0.6]


