Circuit: * C:\LTSpiceTransmissionLines\LTSpice\sim\main\tranmission_line_10_dropoffs.asc

lossytl: using linear interpolation because trytocompact option specified
.OP point found by inspection.

Date: Thu Aug 04 15:19:03 2016
Total elapsed time: 0.363 seconds.

tnom = 27
temp = 27
method = modified trap
totiter = 2650
traniter = 2650
tranpoints = 1326
accept = 1215
rejected = 111
matrix size = 46
fillins = 0
solver = Normal
Matrix Compiler1: 5.36 KB object code size  1.7/1.3/[0.7]
Matrix Compiler2: 4.71 KB object code size  0.9/0.7/[0.4]


