Circuit: * C:\LTSpiceTransmissionLines\LTSpice\sim\main\tranmission_line.asc

lossytl: using linear interpolation because trytocompact option specified
.OP point found by inspection.

Date: Thu Aug 04 10:06:34 2016
Total elapsed time: 0.250 seconds.

tnom = 27
temp = 27
method = modified trap
totiter = 2238
traniter = 2238
tranpoints = 1120
accept = 1110
rejected = 10
matrix size = 46
fillins = 20
solver = Normal
Matrix Compiler1: 5.36 KB object code size  2.7/1.9/[1.4]
Matrix Compiler2: 4.71 KB object code size  1.1/1.0/[0.6]


