Circuit: * C:\LTSpiceTransmissionLines\LTSpice\sim\main\tranmission_line_10_dropoffs.asc

lossytl: using linear interpolation because trytocompact option specified
.OP point found by inspection.

Date: Thu Aug 04 14:45:02 2016
Total elapsed time: 0.339 seconds.

tnom = 27
temp = 27
method = modified trap
totiter = 2570
traniter = 2570
tranpoints = 1286
accept = 1174
rejected = 112
matrix size = 46
fillins = 0
solver = Normal
Matrix Compiler1: 5.36 KB object code size  1.7/1.7/[0.6]
Matrix Compiler2: 4.71 KB object code size  0.8/0.8/[0.4]


