Questionable use of curly braces in "c1 n014 0 {cdrp}"
    Error: undefined symbol in: "[cdrp]"
Questionable use of curly braces in "c2 n013 0 {cdrp}"
    Error: undefined symbol in: "[cdrp]"
Questionable use of curly braces in "c3 n012 0 {cdrp}"
    Error: undefined symbol in: "[cdrp]"
Questionable use of curly braces in "c4 n011 0 {cdrp}"
    Error: undefined symbol in: "[cdrp]"
Questionable use of curly braces in "c5 n010 0 {cdrp}"
    Error: undefined symbol in: "[cdrp]"
Questionable use of curly braces in "c6 n009 0 {cdrp}"
    Error: undefined symbol in: "[cdrp]"
Questionable use of curly braces in "c7 n008 0 {cdrp}"
    Error: undefined symbol in: "[cdrp]"
Questionable use of curly braces in "c8 n007 0 {cdrp}"
    Error: undefined symbol in: "[cdrp]"
Questionable use of curly braces in "c9 n006 0 {cdrp}"
    Error: undefined symbol in: "[cdrp]"
Questionable use of curly braces in "c10 n005 0 {cdrp}"
    Error: undefined symbol in: "[cdrp]"
Questionable use of curly braces in "c11 n004 0 {cdrp}"
    Error: undefined symbol in: "[cdrp]"
Questionable use of curly braces in "c12 n003 0 {cdrp}"
    Error: undefined symbol in: "[cdrp]"
Questionable use of curly braces in "c13 n002 0 {cdrp}"
    Error: undefined symbol in: "[cdrp]"
Questionable use of curly braces in "c14 n001 0 {cdrp}"
    Error: undefined symbol in: "[cdrp]"
Questionable use of curly braces in "r16 inpulse inrefpulse {rterm}"
    Error: undefined symbol in: "[rterm]"
Questionable use of curly braces in "r2 out outref {rterm}"
    Error: undefined symbol in: "[rterm]"
Questionable use of curly braces in ".model lossytl ltra(len={lenline} r={rline} l={lline} c={cline})"
    Error: undefined symbol in: "[lenline]"
Questionable use of curly braces in ".model lossytl ltra(len=(lenline) r={rline} l={lline} c={cline})"
    Error: undefined symbol in: "[rline]"
Questionable use of curly braces in ".model lossytl ltra(len=(lenline) r=(rline) l={lline} c={cline})"
    Error: undefined symbol in: "[lline]"
Questionable use of curly braces in ".model lossytl ltra(len=(lenline) r=(rline) l=(lline) c={cline})"
    Error: undefined symbol in: "[cline]"
Circuit: *5.0p5.0piceTransmissionLines\LTSpice\sim\main\tranmission_line_14_dropoffs.asc

Fatal Error:  Unable to find definition of model "rterm"

