Circuit: * C:\LTSpiceTransmissionLines\LTSpice\sim\main\tranmission_line.asc

Limiting fall time of source i3 to 1.98e-009
Limiting rise time of source i1 to 3.98e-009
lossytl: using linear interpolation because trytocompact option specified
WARNING: Node NC_01 is floating.

WARNING: Less than two connections to node NC_01.  This node is used by C3.
.OP point found by inspection.

Date: Fri Aug 05 10:35:41 2016
Total elapsed time: 10.315 seconds.

tnom = 27
temp = 27
method = modified trap
totiter = 2456
traniter = 2456
tranpoints = 1229
accept = 1156
rejected = 73
matrix size = 111
fillins = 2
solver = Normal
Matrix Compiler1: 13.13 KB object code size  6.6/6.6/[3.9]
Matrix Compiler2: 11.47 KB object code size  3.5/5.0/[2.0]


