Circuit: * C:\LTSpiceTransmissionLines\LTSpice\sim\main\tranmission_line.asc

lossytl: using linear interpolation because trytocompact option specified
WARNING: Node NC_01 is floating.

WARNING: Less than two connections to node NC_01.  This node is used by C3.
.OP point found by inspection.

Date: Thu Aug 04 14:25:03 2016
Total elapsed time: 0.436 seconds.

tnom = 27
temp = 27
method = modified trap
totiter = 2384
traniter = 2384
tranpoints = 1193
accept = 1150
rejected = 43
matrix size = 111
fillins = 2
solver = Normal
Thread vector: 37.7/75.6[1] 3.0/2.0[2] 0.3/0.5[1] 1.0/576.7[1]  2592/500
Matrix Compiler1: 13.13 KB object code size  4.0/3.3/[2.3]
Matrix Compiler2: 11.47 KB object code size  2.0/1.7/[1.4]


