Circuit: * C:\LTSpiceTransmissionLines\LTSpice\sim\main\tranmission_line_10_dropoffs.asc

Limiting fall time of source i3 to 9.8e-010
Limiting rise time of source i1 to 1.48e-009
lossytl: using linear interpolation because trytocompact option specified
.OP point found by inspection.

Date: Fri Aug 05 10:02:25 2016
Total elapsed time: 10.857 seconds.

tnom = 27
temp = 27
method = modified trap
totiter = 18110
traniter = 18110
tranpoints = 9056
accept = 9045
rejected = 11
matrix size = 46
fillins = 0
solver = Normal
Matrix Compiler1: 5.36 KB object code size  2.4/2.1/[1.3]
Matrix Compiler2: 4.71 KB object code size  1.7/1.3/[0.7]


