Circuit: * C:\LTSpiceTransmissionLines\LTSpice\sim\main\tranmission_line_10_dropoffs.asc

Limiting fall time of source i3 to 5.8e-010
Limiting rise time of source i1 to 8.8e-010
lossytl: using linear interpolation because trytocompact option specified
.OP point found by inspection.

Date: Fri Aug 05 10:28:23 2016
Total elapsed time: 0.203 seconds.

tnom = 27
temp = 27
method = modified trap
totiter = 2276
traniter = 2276
tranpoints = 1139
accept = 1115
rejected = 24
matrix size = 46
fillins = 0
solver = Normal
Matrix Compiler1: 5.36 KB object code size  2.6/2.2/[1.3]
Matrix Compiler2: 4.71 KB object code size  1.2/1.0/[0.7]


