Circuit: * C:\LTSpiceTransmissionLines\LTSpice\sim\main\tranmission_line_10_dropoffs.asc

Limiting fall time of source i5 to 9.8e-010
Limiting rise time of source i1 to 9.8e-010
lossytl: using linear interpolation because trytocompact option specified
.OP point found by inspection.

Date: Fri Aug 05 11:06:22 2016
Total elapsed time: 7.585 seconds.

tnom = 27
temp = 27
method = modified trap
totiter = 18630
traniter = 18630
tranpoints = 9316
accept = 9284
rejected = 32
matrix size = 46
fillins = 0
solver = Normal
Matrix Compiler1: 5.36 KB object code size  1.8/1.3/[0.6]
Matrix Compiler2: 4.71 KB object code size  1.0/0.7/[0.4]


