Circuit: * C:\LTSpiceTransmissionLines\LTSpice\sim\main\tranmission_line_14_dropoffs.asc

lossytl: using linear interpolation because trytocompact option specified
.OP point found by inspection.

Date: Thu Aug 04 14:24:51 2016
Total elapsed time: 0.072 seconds.

tnom = 27
temp = 27
method = modified trap
totiter = 2112
traniter = 2112
tranpoints = 1057
accept = 1053
rejected = 4
matrix size = 62
fillins = 0
solver = Normal
Matrix Compiler1: 7.29 KB object code size  2.1/1.8/[0.9]
Matrix Compiler2: 6.38 KB object code size  0.9/0.9/[0.5]


